testData/tamu2000/pfcases_100_zone3/Equ_tx2000_hr_5648_mod_v23_zone3_pslf.raw
0  100.000 
THIS IS A SYNTHETIC POWER SYSTEM MODEL THAT DOES NOT REPRESE
DATA RESEARCH PROJECT AND CONTAINS NO CEII.
1048,  2,  111.307,  -6.903,  0.000,  0.000,  1,  1.00000,  -44.6581,  'MONAHANS',  18.000,  9
1049,  2,  73.506,  2.942,  0.000,  0.000,  1,  1.00000,  -39.0225,  'MONAHANS',  18.000,  9
1053,  2,  66.566,  -15.199,  0.000,  0.000,  1,  1.01506,  -55.0868,  'MONAHANS',  230.00,  9
1063,  2,  100.477,  -0.793,  0.000,  0.000,  1,  1.02509,  -54.8667,  'BIG SPRI',  13.800,  9
1072,  3,  73.658,  -16.662,  0.000,  0.000,  1,  1.01000,  -58.1042,  'ODESSA 1',  18.000,  9
1073,  2,  69.078,  -7.159,  0.000,  0.000,  1,  1.01000,  -50.3204,  'ODESSA 1',  18.000,  9
1074,  2,  71.318,  -4.024,  0.000,  0.000,  1,  1.01000,  -50.7202,  'ODESSA 1',  18.000,  9
1075,  2,  80.251,  -5.528,  0.000,  0.000,  1,  1.01000,  -52.2751,  'ODESSA 1',  18.000,  9
1076,  2,  153.186,  -19.614,  0.000,  0.000,  1,  1.01000,  -55.4078,  'ODESSA 1',  18.000,  9
1077,  2,  72.782,  -4.924,  0.000,  0.000,  1,  1.01000,  -50.9683,  'ODESSA 1',  18.000,  9
1081,  2,  352.061,  -93.242,  0.000,  0.000,  1,  1.02066,  -57.1423,  'ODESSA 1',  230.00,  9
2004,  2,  168.889,  -31.557,  0.000,  0.000,  2,  1.02305,  -59.7564,  'SAVOY 2 ',  13.800,  11
2005,  2,  144.862,  -27.919,  0.000,  0.000,  2,  1.02207,  -59.5941,  'SAVOY 3 ',  13.800,  11
2006,  2,  93.153,  -17.433,  0.000,  0.000,  2,  1.02000,  -58.9736,  'SAVOY 4 ',  13.800,  11
2019,  2,  20.305,  31.788,  0.000,  0.000,  2,  1.04000,  -56.2082,  'PANHANDL',  20.000,  10
2024,  2,  88.621,  -19.612,  0.000,  0.000,  2,  1.02626,  -58.2320,  'PARIS 2 ',  13.800,  11
2057,  3,  274.813,  -99.198,  0.000,  0.000,  2,  0.99000,  -58.7369,  'WICHITA ',  18.000,  11
2059,  2,  1.095,  -0.349,  0.000,  0.000,  2,  1.02769,  -53.5247,  'WHITE DE',  13.800,  10
2062,  2,  68.658,  -26.127,  0.000,  0.000,  2,  1.02000,  -62.7927,  'VERNON 1',  18.000,  10
2100,  2,  35.519,  6.995,  0.000,  0.000,  2,  1.02120,  -56.5538,  'RALLS 1 ',  18.000,  10
2115,  2,  61.034,  -13.020,  0.000,  0.000,  2,  1.02301,  -57.1006,  'PARIS 1 ',  13.800,  11
2116,  2,  105.096,  -23.006,  0.000,  0.000,  2,  1.02676,  -58.1821,  'PARIS 1 ',  13.800,  11
2117,  2,  54.504,  -10.916,  0.000,  0.000,  2,  1.02115,  -56.7460,  'PARIS 1 ',  13.800,  11
2118,  2,  50.417,  -10.057,  0.000,  0.000,  2,  1.02016,  -56.4618,  'PARIS 1 ',  13.800,  11
2119,  2,  84.518,  -19.401,  0.000,  0.000,  2,  1.02586,  -57.9277,  'PARIS 1 ',  13.800,  11
2120,  2,  51.940,  -10.503,  0.000,  0.000,  2,  1.02071,  -56.5748,  'PARIS 1 ',  13.800,  11
2123,  2,  19.587,  -6.632,  0.000,  0.000,  2,  1.03684,  -55.5158,  'PANHANDL',  161.00,  10
2127,  2,  131.783,  -206.185,  0.000,  0.000,  2,  1.05044,  -57.6064,  'MIAMI 0 ',  500.00,  10
3045,  2,  111.681,  -18.418,  0.000,  0.000,  3,  1.04000,  -56.0541,  'SILVER 4',  13.800,  27
3106,  3,  33.199,  -10.737,  0.000,  0.000,  3,  1.00000,  -62.1994,  'BUCHANAN',  13.200,  28
4026,  2,  232.007,  -17.309,  0.000,  0.000,  4,  1.03000,  -63.8540,  'CHRISTIN',  13.800,  20
4030,  3,  200.577,  -15.116,  0.000,  0.000,  4,  1.01000,  -56.4789,  'FANNIN 2',  13.800,  21
4047,  2,  66.026,  3.796,  0.000,  0.000,  4,  1.02000,  -89.7272,  'FALCON H',  13.800,  19
4058,  2,  38.729,  8.462,  0.000,  0.000,  4,  1.03000,  -74.7513,  'GREGORY ',  13.800,  21
4059,  2,  53.499,  5.949,  0.000,  0.000,  4,  1.03000,  -74.9675,  'GREGORY ',  13.800,  21
4060,  2,  29.064,  5.769,  0.000,  0.000,  4,  1.03000,  -74.1449,  'GREGORY ',  13.800,  21
4061,  2,  41.959,  9.306,  0.000,  0.000,  4,  1.03000,  -73.0000,  'GREGORY ',  13.800,  21
4062,  2,  34.579,  7.259,  0.000,  0.000,  4,  1.03000,  -72.2226,  'GREGORY ',  13.800,  21
4063,  2,  41.238,  9.700,  0.000,  0.000,  4,  1.03000,  -72.9430,  'GREGORY ',  13.800,  21
4082,  2,  91.268,  4.144,  0.000,  0.000,  4,  1.04000,  -78.5439,  'CORPUS C',  13.800,  21
4083,  2,  100.199,  3.675,  0.000,  0.000,  4,  1.04000,  -78.8442,  'CORPUS C',  13.800,  21
4084,  2,  171.049,  3.591,  0.000,  0.000,  4,  1.04000,  -80.4376,  'CORPUS C',  13.800,  21
4085,  2,  211.898,  0.829,  0.000,  0.000,  4,  1.04000,  -79.4093,  'CORPUS C',  13.800,  21
4115,  2,  167.790,  -18.275,  0.000,  0.000,  4,  1.04000,  -83.0376,  'LAREDO 1',  13.800,  20
4116,  2,  157.350,  -18.334,  0.000,  0.000,  4,  1.04000,  -82.9841,  'LAREDO 1',  13.800,  20
4160,  2,  196.703,  14.880,  0.000,  0.000,  4,  1.03000,  -76.8707,  'CORPUS C',  13.800,  21
4161,  2,  75.548,  12.516,  0.000,  0.000,  4,  1.03000,  -74.6767,  'CORPUS C',  13.800,  21
4162,  2,  76.486,  11.017,  0.000,  0.000,  4,  1.03000,  -74.7225,  'CORPUS C',  13.800,  21
4192,  2,  1453.734,  -76.129,  0.000,  0.000,  4,  1.02000,  -88.7790,  'BROWNSVI',  230.00,  19
5037,  2,  247.834,  -8.391,  0.000,  0.000,  5,  1.02342,  -59.8379,  'DALLAS 1',  13.200,  16
5038,  2,  239.558,  -7.884,  0.000,  0.000,  5,  1.02320,  -59.7814,  'DALLAS 1',  13.200,  16
5039,  2,  572.268,  -29.469,  0.000,  0.000,  5,  1.02585,  -60.8010,  'DALLAS 1',  13.200,  16
5040,  2,  183.724,  -6.364,  0.000,  0.000,  5,  1.02199,  -59.2140,  'DALLAS 1',  13.200,  16
5041,  2,  264.614,  -10.812,  0.000,  0.000,  5,  1.02388,  -59.9445,  'DALLAS 1',  13.200,  16
5042,  2,  223.212,  -6.892,  0.000,  0.000,  5,  1.02282,  -59.6506,  'DALLAS 1',  13.200,  16
5057,  2,  210.258,  -59.148,  0.000,  0.000,  5,  1.02981,  -58.3864,  'GRAHAM 2',  13.800,  12
5058,  2,  150.935,  -40.526,  0.000,  0.000,  5,  1.02744,  -57.6363,  'GRAHAM 3',  13.800,  12
5067,  2,  366.794,  -22.481,  0.000,  0.000,  5,  1.03000,  -59.9164,  'ARLINGTO',  13.800,  17
5068,  2,  349.625,  -22.554,  0.000,  0.000,  5,  1.03000,  -59.8240,  'ARLINGTO',  13.800,  17
5069,  2,  329.229,  -21.337,  0.000,  0.000,  5,  1.03000,  -59.7011,  'ARLINGTO',  13.800,  17
5166,  2,  170.932,  -24.328,  0.000,  0.000,  5,  1.04000,  -61.7468,  'DENTON 1',  13.800,  17
5206,  2,  124.754,  -24.391,  0.000,  0.000,  5,  1.02762,  -58.3389,  'POOLVILL',  13.800,  12
5207,  2,  222.963,  -46.917,  0.000,  0.000,  5,  1.03021,  -59.2305,  'POOLVILL',  13.800,  12
5208,  2,  177.047,  -36.665,  0.000,  0.000,  5,  1.02942,  -58.9639,  'POOLVILL',  13.800,  12
5262,  2,  395.861,  -50.673,  0.000,  0.000,  5,  1.02050,  -54.5139,  'GLEN ROS',  13.800,  18
5263,  2,  541.132,  -78.997,  0.000,  0.000,  5,  1.02317,  -55.7271,  'GLEN ROS',  13.800,  18
5281,  2,  150.642,  -13.631,  0.000,  0.000,  5,  1.02162,  -60.8641,  'TEMPLE 1',  13.800,  13
5282,  2,  179.607,  -15.985,  0.000,  0.000,  5,  1.02255,  -60.9985,  'TEMPLE 1',  13.800,  13
5283,  2,  240.674,  -22.423,  0.000,  0.000,  5,  1.02378,  -61.1703,  'TEMPLE 1',  13.800,  13
5302,  2,  255.158,  -12.328,  0.000,  0.000,  5,  1.04000,  -59.6267,  'MCKINNEY',  13.800,  16
5303,  2,  344.854,  -20.095,  0.000,  0.000,  5,  1.04000,  -60.2683,  'MCKINNEY',  13.800,  16
5319,  2,  172.359,  -23.479,  0.000,  0.000,  5,  1.02227,  -59.2507,  'GRANBURY',  13.200,  18
5320,  2,  156.157,  -23.547,  0.000,  0.000,  5,  1.02185,  -59.1612,  'GRANBURY',  13.200,  18
5321,  2,  180.594,  -25.055,  0.000,  0.000,  5,  1.02253,  -59.2859,  'GRANBURY',  13.200,  18
5324,  2,  204.316,  -2.531,  0.000,  0.000,  5,  1.04000,  -59.4480,  'DALLAS 2',  13.800,  17
5325,  2,  204.281,  -1.036,  0.000,  0.000,  5,  1.04000,  -59.4438,  'DALLAS 2',  13.800,  17
5326,  2,  611.091,  -44.014,  0.000,  0.000,  5,  1.04000,  -61.2193,  'DALLAS 2',  13.800,  17
5343,  2,  136.310,  0.250,  0.000,  0.000,  5,  1.04000,  -63.2969,  'LEWISVIL',  13.800,  17
5360,  3,  176.716,  -18.135,  0.000,  0.000,  5,  1.01000,  -58.5032,  'RIESEL 1',  13.800,  13
5364,  2,  216.644,  -33.402,  0.000,  0.000,  5,  1.02887,  -59.2927,  'BRIDGEPO',  13.800,  12
5365,  2,  109.276,  -15.378,  0.000,  0.000,  5,  1.02636,  -58.4365,  'BRIDGEPO',  13.800,  12
5366,  2,  97.690,  -13.616,  0.000,  0.000,  5,  1.02578,  -58.2084,  'BRIDGEPO',  13.800,  12
5367,  2,  100.431,  -13.809,  0.000,  0.000,  5,  1.02586,  -58.2644,  'BRIDGEPO',  13.800,  12
5368,  2,  143.788,  -21.568,  0.000,  0.000,  5,  1.02771,  -58.8745,  'BRIDGEPO',  13.800,  12
5369,  2,  94.836,  -12.836,  0.000,  0.000,  5,  1.02549,  -58.1092,  'BRIDGEPO',  13.800,  12
5382,  2,  190.602,  -2.666,  0.000,  0.000,  5,  1.04000,  -60.3373,  'ENNIS 2 ',  13.800,  14
5383,  2,  168.153,  -0.531,  0.000,  0.000,  5,  1.04000,  -60.1761,  'ENNIS 3 ',  13.800,  14
5415,  2,  102.864,  -34.433,  0.000,  0.000,  5,  1.03383,  -60.1029,  'PALO PIN',  13.800,  12
5416,  2,  101.856,  -33.771,  0.000,  0.000,  5,  1.03375,  -60.0964,  'PALO PIN',  13.800,  12
5417,  2,  115.313,  -37.695,  0.000,  0.000,  5,  1.03423,  -60.1721,  'PALO PIN',  13.800,  12
5444,  2,  1361.794,  -192.013,  0.000,  0.000,  5,  1.02372,  -60.6776,  'MIDLOTHI',  500.00,  17
6006,  2,  69.687,  -7.197,  0.000,  0.000,  6,  1.04000,  -57.2942,  'BASTROP ',  13.800,  25
6007,  2,  111.307,  -10.688,  0.000,  0.000,  6,  1.04000,  -56.5508,  'BASTROP ',  13.800,  25
6008,  2,  60.183,  -5.766,  0.000,  0.000,  6,  1.04000,  -57.2255,  'BASTROP ',  13.800,  25
6009,  2,  42.188,  -1.851,  0.000,  0.000,  6,  1.04000,  -56.6320,  'BASTROP ',  13.800,  25
6010,  2,  53.227,  -4.717,  0.000,  0.000,  6,  1.04000,  -57.0806,  'BASTROP ',  13.800,  25
6042,  2,  26.906,  2.360,  0.000,  0.000,  6,  1.04000,  -58.3916,  'AUSTIN 3',  13.800,  23
6062,  1,  295.336,  -13.229,  0.000,  0.000,  6,  1.02421,  -58.6898,  'BRENHAM ',  500.00,  25
6069,  2,  165.429,  -12.173,  0.000,  0.000,  6,  1.03000,  -58.1560,  'MARION 1',  18.000,  22
6070,  2,  70.787,  -4.666,  0.000,  0.000,  6,  1.03000,  -57.1755,  'MARION 1',  18.000,  22
6071,  2,  208.607,  -15.160,  0.000,  0.000,  6,  1.03000,  -58.2990,  'MARION 1',  18.000,  22
6072,  2,  83.392,  -4.924,  0.000,  0.000,  6,  1.03000,  -57.4738,  'MARION 1',  18.000,  22
6073,  2,  126.651,  -8.836,  0.000,  0.000,  6,  1.03000,  -57.9288,  'MARION 1',  18.000,  22
6074,  2,  127.654,  -9.741,  0.000,  0.000,  6,  1.03000,  -57.9360,  'MARION 1',  18.000,  22
6078,  2,  46.431,  -24.354,  0.000,  0.000,  6,  1.01229,  -55.9260,  'LA GRANG',  22.000,  25
6079,  2,  88.255,  -46.712,  0.000,  0.000,  6,  1.01656,  -56.5141,  'LA GRANG',  22.000,  25
6080,  2,  67.783,  -35.390,  0.000,  0.000,  6,  1.01516,  -56.3287,  'LA GRANG',  22.000,  25
6110,  2,  178.601,  -16.569,  0.000,  0.000,  6,  1.04000,  -58.6432,  'ROCKDALE',  13.800,  25
6111,  2,  180.423,  -16.259,  0.000,  0.000,  6,  1.04000,  -58.5319,  'ROCKDALE',  13.800,  25
6145,  2,  165.308,  5.710,  0.000,  0.000,  6,  1.03000,  -55.0594,  'SAN ANTO',  13.800,  22
6146,  2,  171.213,  5.766,  0.000,  0.000,  6,  1.03000,  -55.1962,  'SAN ANTO',  13.800,  22
6147,  3,  192.931,  4.124,  0.000,  0.000,  6,  1.03000,  -56.1453,  'SAN ANTO',  13.800,  22
6148,  2,  307.475,  -1.688,  0.000,  0.000,  6,  1.03000,  -57.6922,  'SAN ANTO',  13.800,  22
6149,  2,  544.508,  -10.671,  0.000,  0.000,  6,  1.03000,  -58.2068,  'SAN ANTO',  13.800,  22
6164,  2,  107.605,  -9.886,  0.000,  0.000,  6,  1.03000,  -56.7765,  'SEGUIN 1',  13.800,  22
6165,  2,  97.024,  -9.177,  0.000,  0.000,  6,  1.03000,  -56.6370,  'SEGUIN 1',  13.800,  22
6166,  2,  217.611,  -23.397,  0.000,  0.000,  6,  1.03000,  -57.4217,  'SEGUIN 1',  13.800,  22
6167,  2,  122.276,  -11.915,  0.000,  0.000,  6,  1.03000,  -56.9273,  'SEGUIN 1',  13.800,  22
6188,  1,  214.473,  -22.274,  0.000,  0.000,  6,  1.01053,  -58.5852,  'COLUMBUS',  230.00,  25
6195,  1,  48.255,  0.963,  0.000,  0.000,  6,  0.98959,  -64.5620,  'INDUSTRY',  115.00,  25
6213,  2,  32.760,  -4.938,  0.000,  0.000,  6,  1.04172,  -59.0358,  'MARBLE F',  13.800,  23
6214,  2,  65.582,  -10.835,  0.000,  0.000,  6,  1.04047,  -58.1990,  'MARBLE F',  13.800,  23
6215,  2,  258.968,  -71.580,  0.000,  0.000,  6,  1.04233,  -59.5007,  'MARBLE F',  13.800,  23
6216,  2,  105.972,  -24.488,  0.000,  0.000,  6,  1.04155,  -58.9381,  'MARBLE F',  13.800,  23
6243,  2,  125.607,  -4.792,  0.000,  0.000,  6,  1.04000,  -57.3892,  'ELMENDOR',  13.800,  22
6244,  2,  137.138,  -7.962,  0.000,  0.000,  6,  1.04000,  -56.8767,  'ELMENDOR',  13.800,  22
6245,  2,  161.483,  -10.944,  0.000,  0.000,  6,  1.04000,  -57.1668,  'ELMENDOR',  13.800,  22
6246,  2,  312.923,  -26.029,  0.000,  0.000,  6,  1.04000,  -57.9341,  'ELMENDOR',  13.800,  22
6247,  2,  256.174,  -22.371,  0.000,  0.000,  6,  1.04000,  -58.1370,  'ELMENDOR',  13.800,  22
6248,  2,  137.553,  -5.190,  0.000,  0.000,  6,  1.04000,  -57.5162,  'ELMENDOR',  13.800,  22
6249,  2,  114.288,  0.771,  0.000,  0.000,  6,  1.04000,  -56.9686,  'ELMENDOR',  13.800,  22
6257,  2,  102.881,  3.540,  0.000,  0.000,  6,  1.03369,  -58.4954,  'AUSTIN 2',  13.800,  23
6258,  2,  56.558,  1.378,  0.000,  0.000,  6,  1.03160,  -57.8642,  'AUSTIN 2',  13.800,  23
6260,  2,  114.066,  2.670,  0.000,  0.000,  6,  1.03332,  -58.3563,  'AUSTIN 2',  13.800,  23
6295,  2,  118.528,  -5.262,  0.000,  0.000,  6,  1.03499,  -58.3545,  'CEDAR CR',  13.800,  23
6296,  2,  138.163,  -6.527,  0.000,  0.000,  6,  1.03525,  -58.4382,  'CEDAR CR',  13.800,  23
6297,  2,  55.836,  -1.449,  0.000,  0.000,  6,  1.03226,  -57.5906,  'CEDAR CR',  13.800,  23
6302,  2,  88.593,  -6.034,  0.000,  0.000,  6,  1.02313,  -56.7438,  'NEW BRAU',  22.000,  22
6303,  2,  249.191,  -13.498,  0.000,  0.000,  6,  1.02710,  -57.8644,  'NEW BRAU',  22.000,  22
6304,  2,  104.345,  -6.443,  0.000,  0.000,  6,  1.02415,  -57.0158,  'NEW BRAU',  22.000,  22
6305,  2,  87.633,  -6.234,  0.000,  0.000,  6,  1.02316,  -56.7224,  'NEW BRAU',  22.000,  22
6341,  1,  90.289,  -17.682,  0.000,  0.000,  6,  1.01290,  -65.6949,  'CHAPPELL',  115.00,  25
6349,  2,  1316.956,  -117.916,  0.000,  0.000,  6,  1.04000,  -59.6417,  'AUSTIN 1',  500.00,  23
7002,  1,  0.000,  0.000,  0.000,  0.000,  7,  1.03500,  -55.5742,  'PASADENA',  500.00,  4
7003,  1,  0.000,  0.000,  0.000,  0.000,  7,  1.02831,  -58.2105,  'PASADENA',  230.00,  4
7004,  1,  0.000,  0.000,  0.000,  0.000,  7,  1.02590,  -61.2091,  'PASADENA',  115.00,  4
7005,  2,  0.000,  0.000,  0.000,  0.000,  7,  1.04000,  -54.0211,  'PASADENA',  13.800,  4
7006,  2,  0.000,  0.000,  0.000,  0.000,  7,  1.04000,  -54.6913,  'PASADENA',  13.800,  4
7007,  2,  0.000,  0.000,  0.000,  0.000,  7,  1.04000,  -54.2447,  'PASADENA',  13.800,  4
7008,  2,  0.000,  0.000,  0.000,  0.000,  7,  1.04000,  -54.1769,  'PASADENA',  13.800,  4
7009,  2,  0.000,  0.000,  0.000,  0.000,  7,  1.04000,  -54.0181,  'PASADENA',  13.800,  4
7010,  1,  0.000,  0.000,  0.000,  0.000,  7,  1.00093,  -66.4020,  'PRAIRIE ',  115.00,  5
7011,  1,  0.000,  0.000,  0.000,  0.000,  7,  1.02521,  -65.9120,  'CONROE 1',  115.00,  5
7012,  1,  0.000,  0.000,  0.000,  0.000,  7,  0.99697,  -63.7001,  'SIMONTON',  115.00,  3
7013,  1,  0.000,  0.000,  0.000,  0.000,  7,  1.01058,  -65.2423,  'HOUSTON ',  115.00,  5
7014,  1,  0.000,  0.000,  0.000,  0.000,  7,  1.01041,  -64.0012,  'HOUSTON ',  115.00,  4
7015,  2,  0.000,  0.000,  0.000,  0.000,  7,  1.01041,  -64.0012,  'HOUSTON ',  18.000,  4
7016,  1,  0.000,  0.000,  0.000,  0.000,  7,  1.01858,  -62.1380,  'HOUSTON ',  115.00,  4
7017,  1,  0.000,  0.000,  0.000,  0.000,  7,  1.01517,  -64.5493,  'HOUSTON ',  115.00,  3
7026,  1,  0.000,  0.000,  0.000,  0.000,  7,  1.02177,  -61.7094,  'BACLIFF ',  115.00,  4
7027,  1,  0.000,  0.000,  0.000,  0.000,  7,  1.01268,  -64.6765,  'SPRING 1',  115.00,  5
7028,  1,  -0.201,  -281.506,  0.000,  0.000,  7,  1.02000,  -64.2737,  'HOUSTON ',  115.00,  3
7035,  1,  0.000,  0.000,  0.000,  0.000,  7,  1.02571,  -61.8259,  'CONROE 5',  230.00,  5
7036,  1,  0.000,  0.000,  0.000,  0.000,  7,  1.01883,  -63.4918,  'CONROE 5',  115.00,  5
7037,  1,  0.000,  0.000,  0.000,  0.000,  7,  1.03000,  -58.7518,  'SUGAR LA',  500.00,  3
7038,  1,  0.000,  0.000,  0.000,  0.000,  7,  1.02059,  -59.9679,  'SUGAR LA',  230.00,  3
7039,  1,  0.000,  0.000,  0.000,  0.000,  7,  1.01570,  -63.0498,  'SUGAR LA',  115.00,  3
7040,  1,  0.000,  0.000,  0.000,  0.000,  7,  1.02679,  -58.8625,  'DAYTON 0',  230.00,  4
7041,  1,  0.000,  0.000,  0.000,  0.000,  7,  1.01986,  -61.5923,  'DAYTON 1',  115.00,  4
7045,  2,  78.517,  -13.478,  0.000,  0.000,  7,  1.03000,  -52.3748,  'VICTORIA',  20.000,  6
7046,  2,  121.212,  -29.325,  0.000,  0.000,  7,  1.02995,  -53.0002,  'VICTORIA',  20.000,  6
7047,  1,  0.000,  0.000,  0.000,  0.000,  7,  1.02922,  -59.0056,  'KATY 1 0',  500.00,  3
7048,  1,  0.000,  0.000,  0.000,  0.000,  7,  1.02247,  -60.4424,  'KATY 1 1',  230.00,  3
7049,  1,  0.000,  0.000,  0.000,  0.000,  7,  1.02000,  -63.5472,  'KATY 1 2',  115.00,  3
7050,  1,  0.000,  0.000,  0.000,  0.000,  7,  1.00847,  -65.7411,  'MAGNOLIA',  115.00,  5
7051,  1,  0.000,  0.000,  0.000,  0.000,  7,  1.01496,  -64.6044,  'HOUSTON ',  115.00,  3
7052,  1,  0.000,  0.000,  0.000,  0.000,  7,  1.01239,  -63.5566,  'MISSOURI',  115.00,  3
7053,  1,  0.000,  0.000,  0.000,  0.000,  7,  1.01937,  -60.5259,  'RICHMOND',  115.00,  3
7054,  1,  0.000,  0.000,  0.000,  0.000,  7,  1.00647,  -64.6894,  'HOUSTON ',  115.00,  4
7055,  1,  0.000,  0.000,  0.000,  0.000,  7,  1.01519,  -63.2101,  'HOUSTON ',  115.00,  3
7056,  1,  0.000,  0.000,  0.000,  0.000,  7,  1.02199,  -61.8213,  'SPRING 8',  230.00,  5
7057,  1,  0.000,  0.000,  0.000,  0.000,  7,  1.01127,  -64.6857,  'SPRING 8',  115.00,  5
7058,  1,  194.858,  -69.571,  0.000,  0.000,  7,  1.00880,  -50.6164,  'POINT CO',  500.00,  6
7067,  1,  0.000,  0.000,  0.000,  0.000,  7,  1.00138,  -65.7951,  'HOUSTON ',  115.00,  3
7068,  1,  0.000,  0.000,  0.000,  0.000,  7,  1.00327,  -55.7533,  'EL CAMPO',  230.00,  1
7069,  1,  0.000,  0.000,  0.000,  0.000,  7,  0.99969,  -59.1158,  'EL CAMPO',  115.00,  1
7070,  1,  0.000,  0.000,  0.000,  0.000,  7,  1.01163,  -62.7566,  'HOUSTON ',  115.00,  4
7072,  1,  0.000,  0.000,  0.000,  0.000,  7,  1.01919,  -61.3684,  'DICKINSO',  115.00,  4
7073,  1,  0.000,  0.000,  0.000,  0.000,  7,  1.02507,  -58.9602,  'GALVESTO',  230.00,  2
7074,  1,  0.000,  0.000,  0.000,  0.000,  7,  1.02175,  -60.7543,  'GALVESTO',  115.00,  2
7075,  1,  -0.021,  -271.807,  0.000,  0.000,  7,  1.03000,  -61.9919,  'HOUSTON ',  115.00,  4
7076,  1,  0.000,  0.000,  0.000,  0.000,  7,  1.03746,  -54.8153,  'BAYTOWN ',  500.00,  4
7077,  1,  0.000,  0.000,  0.000,  0.000,  7,  1.03367,  -56.5576,  'BAYTOWN ',  230.00,  4
7078,  1,  0.000,  0.000,  0.000,  0.000,  7,  1.02566,  -59.9798,  'BAYTOWN ',  115.00,  4
7079,  2,  0.000,  0.000,  0.000,  0.000,  7,  1.04000,  -53.3528,  'BAYTOWN ',  13.800,  4
7080,  2,  0.000,  0.000,  0.000,  0.000,  7,  1.04000,  -52.9404,  'BAYTOWN ',  13.800,  4
7081,  2,  0.000,  0.000,  0.000,  0.000,  7,  1.04000,  -52.9234,  'BAYTOWN ',  13.800,  4
7082,  2,  0.000,  0.000,  0.000,  0.000,  7,  1.04000,  -53.3146,  'BAYTOWN ',  13.800,  4
7083,  1,  0.000,  0.000,  0.000,  0.000,  7,  1.02578,  -58.2525,  'LEAGUE C',  230.00,  4
7084,  1,  0.000,  0.000,  0.000,  0.000,  7,  1.02029,  -60.4593,  'LEAGUE C',  115.00,  4
...
 0 /End of Bus data, Begin Generator data
1048,  '1',  188.620,  -9.781,  165.530,  -36.100,  1.00000,  0,  390.240,  0.00000,  0.10170,  0.00000,  0.00000,  1.00000,  1,  100.0,  325.200,  97.560
1049,  '1',  188.620,  9.952,  165.530,  -36.100,  1.00000,  0,  390.240,  0.00000,  0.13490,  0.00000,  0.00000,  1.00000,  1,  100.0,  325.200,  97.560
1053,  '1',  53.640,  -19.850,  91.010,  -19.850,  1.00000,  0,  214.560,  0.00000,  0.16870,  0.00000,  0.00000,  1.00000,  1,  100.0,  178.800,  53.640
1063,  '1',  107.480,  0.000,  0.000,  0.000,  1.01000,  0,  276.000,  0.00000,  1.00000,  0.00000,  0.00000,  1.00000,  1,  100.0,  230.000,  69.000
1072,  '1',  7.380,  -10.632,  97.800,  -21.330,  1.01000,  0,  230.560,  0.00000,  0.30820,  0.00000,  0.00000,  1.00000,  1,  100.0,  192.130,  57.640
1073,  '1',  111.440,  -9.828,  97.800,  -21.330,  1.01000,  0,  230.560,  0.00000,  0.19480,  0.00000,  0.00000,  1.00000,  1,  100.0,  192.130,  57.640
1074,  '1',  111.440,  -4.571,  97.800,  -21.330,  1.01000,  0,  230.560,  0.00000,  0.20960,  0.00000,  0.00000,  1.00000,  1,  100.0,  192.130,  57.640
1075,  '1',  111.440,  -6.861,  97.800,  -21.330,  1.01000,  0,  230.560,  0.00000,  0.12370,  0.00000,  0.00000,  1.00000,  1,  100.0,  192.130,  57.640
1076,  '1',  111.440,  -17.843,  97.800,  -21.330,  1.01000,  0,  230.560,  0.00000,  0.10660,  0.00000,  0.00000,  1.00000,  1,  100.0,  192.130,  57.640
1077,  '1',  111.440,  -5.827,  97.800,  -21.330,  1.01000,  0,  230.560,  0.00000,  0.15380,  0.00000,  0.00000,  1.00000,  1,  100.0,  192.130,  57.640
1081,  '1',  166.170,  -31.800,  145.830,  -31.800,  1.01000,  0,  343.800,  0.00000,  0.14960,  0.00000,  0.00000,  1.00000,  1,  100.0,  286.500,  85.950
2004,  '1',  117.540,  -43.490,  199.430,  -43.490,  1.02000,  0,  470.160,  0.00000,  0.10640,  0.00000,  0.00000,  1.00000,  1,  100.0,  391.800,  117.540
2005,  '1',  117.540,  -43.490,  199.430,  -43.490,  1.02000,  0,  470.160,  0.00000,  0.22750,  0.00000,  0.00000,  1.00000,  1,  100.0,  391.800,  117.540
2006,  '1',  117.540,  -34.717,  199.430,  -43.490,  1.02000,  0,  470.160,  0.00000,  0.20040,  0.00000,  0.00000,  1.00000,  1,  100.0,  391.800,  117.540
2019,  '1',  131.032,  -4.369,  46.430,  -31.390,  1.04000,  0,  261.600,  0.00000,  1.00000,  0.00000,  0.00000,  1.00000,  1,  100.0,  218.000,  65.400
2024,  '1',  96.670,  -18.500,  84.830,  -18.500,  1.02000,  0,  200.000,  0.00000,  0.15080,  0.00000,  0.00000,  1.00000,  1,  100.0,  166.670,  50.000
2057,  '1',  238.116,  -246.167,  335.520,  -87.840,  0.99000,  0,  864.000,  0.00000,  0.17700,  0.00000,  0.00000,  1.00000,  1,  100.0,  720.000,  216.000
2059,  '1',  36.064,  -11.520,  17.040,  -11.520,  1.00000,  0,  96.000,  0.00000,  1.00000,  0.00000,  0.00000,  1.00000,  1,  100.0,  80.000,  24.000
2062,  '1',  31.649,  -16.343,  28.840,  -19.500,  1.02000,  0,  162.480,  0.00000,  1.00000,  0.00000,  0.00000,  1.00000,  1,  100.0,  135.400,  40.620
2100,  '1',  46.873,  -21.600,  31.950,  -21.600,  1.02000,  0,  180.000,  0.00000,  1.00000,  0.00000,  0.00000,  1.00000,  1,  100.0,  150.000,  45.000
2115,  '1',  107.130,  -20.500,  94.020,  -20.500,  1.00000,  0,  221.660,  0.00000,  0.14250,  0.00000,  0.00000,  1.00000,  1,  100.0,  184.720,  55.410
2116,  '1',  107.130,  -20.500,  94.020,  -20.500,  1.00000,  0,  221.660,  0.00000,  0.18690,  0.00000,  0.00000,  1.00000,  1,  100.0,  184.720,  55.410
2117,  '1',  107.130,  -20.500,  94.020,  -20.500,  1.00000,  0,  221.660,  0.00000,  0.32540,  0.00000,  0.00000,  1.00000,  1,  100.0,  184.720,  55.410
2118,  '1',  107.130,  -20.500,  94.020,  -20.500,  1.00000,  0,  221.660,  0.00000,  0.10610,  0.00000,  0.00000,  1.00000,  1,  100.0,  184.720,  55.410
2119,  '1',  107.130,  -20.500,  94.020,  -20.500,  1.00000,  0,  221.660,  0.00000,  0.13600,  0.00000,  0.00000,  1.00000,  1,  100.0,  184.720,  55.410
2120,  '1',  107.130,  -20.500,  94.020,  -20.500,  1.01000,  0,  221.660,  0.00000,  0.20680,  0.00000,  0.00000,  1.00000,  1,  100.0,  184.720,  55.410
2123,  '1',  52.400,  -26.160,  38.700,  -26.160,  1.00000,  0,  218.040,  0.00000,  1.00000,  0.00000,  0.00000,  1.00000,  1,  100.0,  181.700,  54.510
2127,  '1',  52.694,  -41.560,  61.470,  -41.560,  1.04000,  0,  346.320,  0.00000,  1.00000,  0.00000,  0.00000,  1.00000,  1,  100.0,  288.600,  86.580
3045,  '1',  134.100,  -3.372,  227.520,  -49.620,  1.04000,  0,  536.400,  0.00000,  0.14470,  0.00000,  0.00000,  1.00000,  1,  100.0,  447.000,  134.100
3106,  '1',  21.959,  -18.025,  62.477,  -2.690,  1.00000,  0,  65.880,  0.00000,  0.29220,  0.00000,  0.00000,  1.00000,  1,  100.0,  162.800,  0.000
4026,  '1',  123.000,  8.852,  191.060,  -50.020,  1.03000,  0,  492.000,  0.00000,  0.32770,  0.00000,  0.00000,  1.00000,  1,  100.0,  410.000,  123.000
4030,  '1',  256.165,  -24.812,  290.040,  -75.930,  1.01000,  0,  746.880,  0.00000,  0.27970,  0.00000,  0.00000,  1.00000,  1,  100.0,  622.400,  186.720
4047,  '1',  42.588,  4.716,  75.102,  -3.230,  1.02000,  0,  79.200,  0.00000,  0.32270,  0.00000,  0.00000,  1.00000,  1,  100.0,  195.700,  0.000
4058,  '1',  43.200,  11.500,  73.300,  -15.980,  1.03000,  0,  172.800,  0.00000,  0.13700,  0.00000,  0.00000,  1.00000,  1,  100.0,  144.000,  43.200
4059,  '1',  43.200,  12.885,  73.300,  -15.980,  1.03000,  0,  172.800,  0.00000,  0.15140,  0.00000,  0.00000,  1.00000,  1,  100.0,  144.000,  43.200
4060,  '1',  43.200,  7.960,  73.300,  -15.980,  1.03000,  0,  172.800,  0.00000,  0.13940,  0.00000,  0.00000,  1.00000,  1,  100.0,  144.000,  43.200
4061,  '1',  99.950,  12.315,  87.720,  -19.130,  1.03000,  0,  206.800,  0.00000,  0.21560,  0.00000,  0.00000,  1.00000,  1,  100.0,  172.330,  51.700
4062,  '1',  99.950,  9.134,  87.720,  -19.130,  1.03000,  0,  206.800,  0.00000,  0.25930,  0.00000,  0.00000,  1.00000,  1,  100.0,  172.330,  51.700
4063,  '1',  99.950,  13.424,  87.720,  -19.130,  1.03000,  0,  206.800,  0.00000,  0.14410,  0.00000,  0.00000,  1.00000,  1,  100.0,  172.330,  51.700
4082,  '1',  141.170,  18.651,  123.890,  -27.020,  1.04000,  0,  292.080,  0.00000,  0.13810,  0.00000,  0.00000,  1.00000,  1,  100.0,  243.400,  73.020
4083,  '1',  141.170,  19.782,  123.890,  -27.020,  1.04000,  0,  292.080,  0.00000,  0.15700,  0.00000,  0.00000,  1.00000,  1,  100.0,  243.400,  73.020
4084,  '1',  141.170,  34.744,  123.890,  -27.020,  1.04000,  0,  292.080,  0.00000,  0.19110,  0.00000,  0.00000,  1.00000,  1,  100.0,  243.400,  73.020
4085,  '1',  253.440,  40.506,  179.170,  -39.070,  1.04000,  0,  422.400,  0.00000,  0.31920,  0.00000,  0.00000,  1.00000,  1,  100.0,  352.000,  105.600
4115,  '1',  39.540,  22.886,  67.090,  -14.630,  1.04000,  0,  158.160,  0.00000,  0.11310,  0.00000,  0.00000,  1.00000,  1,  100.0,  131.800,  39.540
4116,  '1',  39.540,  21.366,  67.090,  -14.630,  1.04000,  0,  158.160,  0.00000,  0.15150,  0.00000,  0.00000,  1.00000,  1,  100.0,  131.800,  39.540
4160,  '1',  114.710,  32.099,  100.660,  -21.950,  1.03000,  0,  237.320,  0.00000,  0.18820,  0.00000,  0.00000,  1.00000,  1,  100.0,  197.770,  59.330
4161,  '1',  114.710,  15.522,  100.660,  -21.950,  1.03000,  0,  237.320,  0.00000,  0.12390,  0.00000,  0.00000,  1.00000,  1,  100.0,  197.770,  59.330
4162,  '1',  114.710,  13.246,  100.660,  -21.950,  1.03000,  0,  237.320,  0.00000,  0.17220,  0.00000,  0.00000,  1.00000,  1,  100.0,  197.770,  59.330
4192,  '1',  837.631,  16.237,  688.320,  -150.120,  1.02000,  0,  1622.76,  0.00000,  0.14340,  0.00000,  0.00000,  1.00000,  1,  100.0,  1352.31,  405.690
5037,  '1',  265.280,  -34.240,  157.010,  -34.240,  1.02000,  0,  370.160,  0.00000,  0.29910,  0.00000,  0.00000,  1.00000,  1,  100.0,  308.470,  92.540
5038,  '1',  265.280,  -34.240,  157.010,  -34.240,  1.02000,  0,  370.160,  0.00000,  0.12330,  0.00000,  0.00000,  1.00000,  1,  100.0,  308.470,  92.540
5039,  '1',  265.280,  -34.240,  157.010,  -34.240,  1.02000,  0,  370.160,  0.00000,  0.21470,  0.00000,  0.00000,  1.00000,  1,  100.0,  308.470,  92.540
5040,  '1',  265.280,  -34.240,  157.010,  -34.240,  1.02000,  0,  370.160,  0.00000,  0.19240,  0.00000,  0.00000,  1.00000,  1,  100.0,  308.470,  92.540
5041,  '1',  265.280,  -34.240,  157.010,  -34.240,  1.02000,  0,  370.160,  0.00000,  0.11590,  0.00000,  0.00000,  1.00000,  1,  100.0,  308.470,  92.540
5042,  '1',  265.280,  -34.240,  157.010,  -34.240,  1.02000,  0,  370.160,  0.00000,  0.19130,  0.00000,  0.00000,  1.00000,  1,  100.0,  308.470,  92.540
5057,  '1',  228.450,  -35.230,  161.530,  -35.230,  1.00000,  0,  380.820,  0.00000,  0.19130,  0.00000,  0.00000,  1.00000,  1,  100.0,  317.350,  95.200
5058,  '1',  228.490,  -35.230,  161.530,  -35.230,  1.00000,  0,  380.820,  0.00000,  0.29820,  0.00000,  0.00000,  1.00000,  1,  100.0,  317.350,  95.200
5067,  '1',  315.550,  -15.654,  223.080,  -48.650,  1.03000,  0,  525.920,  0.00000,  0.32610,  0.00000,  0.00000,  1.00000,  1,  100.0,  438.270,  131.480
5068,  '1',  315.550,  -16.080,  223.080,  -48.650,  1.03000,  0,  525.920,  0.00000,  0.11690,  0.00000,  0.00000,  1.00000,  1,  100.0,  438.270,  131.480
5069,  '1',  315.550,  -15.512,  223.080,  -48.650,  1.03000,  0,  525.920,  0.00000,  0.10560,  0.00000,  0.00000,  1.00000,  1,  100.0,  438.270,  131.480
5166,  '1',  37.950,  16.082,  64.390,  -14.040,  1.04000,  0,  151.800,  0.00000,  0.13910,  0.00000,  0.00000,  1.00000,  1,  100.0,  126.500,  37.950
5206,  '1',  179.040,  -27.600,  126.570,  -27.600,  1.01000,  0,  298.400,  0.00000,  0.11980,  0.00000,  0.00000,  1.00000,  1,  100.0,  248.670,  74.600
5207,  '1',  179.040,  -27.600,  126.570,  -27.600,  1.01000,  0,  298.400,  0.00000,  0.18090,  0.00000,  0.00000,  1.00000,  1,  100.0,  248.670,  74.600
5208,  '1',  179.040,  -27.600,  126.570,  -27.600,  1.01000,  0,  298.400,  0.00000,  0.10560,  0.00000,  0.00000,  1.00000,  1,  100.0,  248.670,  74.600
5262,  '1',  1215.000,  -99.630,  447.120,  -99.630,  1.01000,  0,  1458.00,  0.00000,  0.26310,  0.00000,  0.00000,  1.00000,  1,  100.0,  1215.00,  364.500
5263,  '1',  1215.000,  -99.630,  447.120,  -99.630,  1.01000,  0,  1458.00,  0.00000,  0.16260,  0.00000,  0.00000,  1.00000,  1,  100.0,  1215.00,  364.500
5281,  '1',  80.320,  -29.720,  136.280,  -29.720,  1.00000,  0,  321.280,  0.00000,  0.10660,  0.00000,  0.00000,  1.00000,  1,  100.0,  267.730,  80.320
5282,  '1',  80.320,  -29.720,  136.280,  -29.720,  1.00000,  0,  321.280,  0.00000,  0.23940,  0.00000,  0.00000,  1.00000,  1,  100.0,  267.730,  80.320
5283,  '1',  80.320,  -29.720,  136.280,  -29.720,  1.00000,  0,  321.280,  0.00000,  0.10650,  0.00000,  0.00000,  1.00000,  1,  100.0,  267.730,  80.320
5302,  '1',  268.980,  44.071,  236.050,  -51.480,  1.04000,  0,  556.500,  0.00000,  0.13300,  0.00000,  0.00000,  1.00000,  1,  100.0,  463.750,  139.130
5303,  '1',  268.980,  58.227,  236.050,  -51.480,  1.04000,  0,  556.500,  0.00000,  0.17920,  0.00000,  0.00000,  1.00000,  1,  100.0,  463.750,  139.130
5319,  '1',  78.840,  -29.170,  133.770,  -29.170,  1.01000,  0,  315.360,  0.00000,  0.25070,  0.00000,  0.00000,  1.00000,  1,  100.0,  262.800,  78.840
5320,  '1',  78.840,  -29.170,  133.770,  -29.170,  1.01000,  0,  315.360,  0.00000,  0.28140,  0.00000,  0.00000,  1.00000,  1,  100.0,  262.800,  78.840
5321,  '1',  78.840,  -29.170,  133.770,  -29.170,  1.01000,  0,  315.360,  0.00000,  0.12810,  0.00000,  0.00000,  1.00000,  1,  100.0,  262.800,  78.840
5324,  '1',  244.300,  38.691,  144.590,  -31.530,  1.04000,  0,  340.880,  0.00000,  0.21670,  0.00000,  0.00000,  1.00000,  1,  100.0,  284.070,  85.220
5325,  '1',  244.300,  40.461,  144.590,  -31.530,  1.04000,  0,  340.880,  0.00000,  0.15030,  0.00000,  0.00000,  1.00000,  1,  100.0,  284.070,  85.220
5326,  '1',  244.300,  105.792,  144.590,  -31.530,  1.04000,  0,  340.880,  0.00000,  0.18810,  0.00000,  0.00000,  1.00000,  1,  100.0,  284.070,  85.220
5343,  '1',  45.155,  21.293,  79.667,  -3.430,  1.04000,  0,  84.000,  0.00000,  0.24140,  0.00000,  0.00000,  1.00000,  1,  100.0,  207.500,  0.000
5360,  '1',  333.471,  -139.860,  469.730,  -122.980,  1.01000,  0,  1209.60,  0.00000,  0.25510,  0.00000,  0.00000,  1.00000,  1,  100.0,  1008.00,  302.400
5364,  '1',  153.600,  -23.680,  108.590,  -23.680,  1.00000,  0,  256.000,  0.00000,  0.13030,  0.00000,  0.00000,  1.00000,  1,  100.0,  213.330,  64.000
5365,  '1',  153.600,  -23.680,  108.590,  -23.680,  1.00000,  0,  256.000,  0.00000,  0.11650,  0.00000,  0.00000,  1.00000,  1,  100.0,  213.330,  64.000
5366,  '1',  153.600,  -23.680,  108.590,  -23.680,  1.00000,  0,  256.000,  0.00000,  0.15490,  0.00000,  0.00000,  1.00000,  1,  100.0,  213.330,  64.000
5367,  '1',  153.600,  -23.680,  108.590,  -23.680,  1.00000,  0,  256.000,  0.00000,  0.10020,  0.00000,  0.00000,  1.00000,  1,  100.0,  213.330,  64.000
5368,  '1',  153.600,  -23.680,  108.590,  -23.680,  1.00000,  0,  256.000,  0.00000,  0.36180,  0.00000,  0.00000,  1.00000,  1,  100.0,  213.330,  64.000
5369,  '1',  153.600,  -23.680,  108.590,  -23.680,  1.00000,  0,  256.000,  0.00000,  0.24440,  0.00000,  0.00000,  1.00000,  1,  100.0,  213.330,  64.000
5382,  '1',  150.480,  66.457,  106.380,  -23.200,  1.04000,  0,  250.800,  0.00000,  0.24770,  0.00000,  0.00000,  1.00000,  1,  100.0,  209.000,  62.700
5383,  '1',  150.480,  58.545,  106.380,  -23.200,  1.04000,  0,  250.800,  0.00000,  0.39820,  0.00000,  0.00000,  1.00000,  1,  100.0,  209.000,  62.700
5415,  '1',  36.600,  -13.540,  62.100,  -13.540,  1.00000,  0,  146.400,  0.00000,  0.14030,  0.00000,  0.00000,  1.00000,  1,  100.0,  122.000,  36.600
5416,  '1',  36.600,  -13.540,  62.100,  -13.540,  1.00000,  0,  146.400,  0.00000,  0.26480,  0.00000,  0.00000,  1.00000,  1,  100.0,  122.000,  36.600
5417,  '1',  36.600,  -13.540,  62.100,  -13.540,  1.00000,  0,  146.400,  0.00000,  0.16960,  0.00000,  0.00000,  1.00000,  1,  100.0,  122.000,  36.600
5444,  '1',  604.980,  -223.840,  1026.440,  -223.840,  1.01000,  0,  2419.92,  0.00000,  0.34260,  0.00000,  0.00000,  1.00000,  1,  100.0,  2016.60,  604.980
6006,  '1',  123.540,  7.564,  108.420,  -23.640,  1.04000,  0,  255.600,  0.00000,  0.18770,  0.00000,  0.00000,  1.00000,  1,  100.0,  213.000,  63.900
6007,  '1',  366.360,  13.551,  216.830,  -47.290,  1.04000,  0,  511.200,  0.00000,  0.13420,  0.00000,  0.00000,  1.00000,  1,  100.0,  426.000,  127.800
6008,  '1',  115.030,  7.169,  100.950,  -22.010,  1.04000,  0,  238.000,  0.00000,  0.20160,  0.00000,  0.00000,  1.00000,  1,  100.0,  198.330,  59.500
6009,  '1',  115.030,  4.567,  100.950,  -22.010,  1.04000,  0,  238.000,  0.00000,  0.18430,  0.00000,  0.00000,  1.00000,  1,  100.0,  198.330,  59.500
6010,  '1',  115.030,  5.399,  100.950,  -22.010,  1.04000,  0,  238.000,  0.00000,  0.15620,  0.00000,  0.00000,  1.00000,  1,  100.0,  198.330,  59.500
6042,  '1',  69.681,  7.153,  122.908,  -5.290,  1.04000,  0,  129.600,  0.00000,  0.18770,  0.00000,  0.00000,  1.00000,  1,  100.0,  320.200,  0.000
6069,  '1',  105.190,  -14.396,  92.320,  -20.130,  1.03000,  0,  217.640,  0.00000,  0.22480,  0.00000,  0.00000,  1.00000,  1,  100.0,  181.370,  54.410
6070,  '1',  105.190,  -5.419,  92.320,  -20.130,  1.03000,  0,  217.640,  0.00000,  0.24660,  0.00000,  0.00000,  1.00000,  1,  100.0,  181.370,  54.410
6071,  '1',  105.190,  -17.351,  92.320,  -20.130,  1.03000,  0,  217.640,  0.00000,  0.15280,  0.00000,  0.00000,  1.00000,  1,  100.0,  181.370,  54.410
6072,  '1',  105.190,  -6.421,  92.320,  -20.130,  1.03000,  0,  217.640,  0.00000,  0.19250,  0.00000,  0.00000,  1.00000,  1,  100.0,  181.370,  54.410
6073,  '1',  105.190,  -10.652,  92.320,  -20.130,  1.03000,  0,  217.640,  0.00000,  0.14260,  0.00000,  0.00000,  1.00000,  1,  100.0,  181.370,  54.410
6074,  '1',  105.190,  -11.416,  92.320,  -20.130,  1.03000,  0,  217.640,  0.00000,  0.11150,  0.00000,  0.00000,  1.00000,  1,  100.0,  181.370,  54.410
6078,  '1',  169.000,  -68.730,  262.510,  -68.730,  1.00000,  0,  676.000,  0.00000,  0.28900,  0.00000,  0.00000,  1.00000,  1,  100.0,  563.330,  169.000
6079,  '1',  169.000,  -68.730,  262.510,  -68.730,  1.00000,  0,  676.000,  0.00000,  0.25330,  0.00000,  0.00000,  1.00000,  1,  100.0,  563.330,  169.000
6080,  '1',  169.000,  -68.730,  262.510,  -68.730,  1.00000,  0,  676.000,  0.00000,  0.32510,  0.00000,  0.00000,  1.00000,  1,  100.0,  563.330,  169.000
6110,  '1',  177.180,  16.578,  275.220,  -72.050,  1.04000,  0,  708.720,  0.00000,  0.16800,  0.00000,  0.00000,  1.00000,  1,  100.0,  590.600,  177.180
6111,  '1',  198.450,  16.983,  308.260,  -80.700,  1.04000,  0,  793.800,  0.00000,  0.21900,  0.00000,  0.00000,  1.00000,  1,  100.0,  661.500,  198.450
6145,  '1',  383.560,  -0.993,  227.010,  -49.510,  1.03000,  0,  535.200,  0.00000,  0.14770,  0.00000,  0.00000,  1.00000,  1,  100.0,  446.000,  133.800
6146,  '1',  383.560,  -1.296,  227.010,  -49.510,  1.03000,  0,  535.200,  0.00000,  0.11950,  0.00000,  0.00000,  1.00000,  1,  100.0,  446.000,  133.800
6147,  '1',  324.640,  -6.038,  474.390,  -103.450,  1.03000,  0,  1118.40,  0.00000,  0.10440,  0.00000,  0.00000,  1.00000,  1,  100.0,  932.000,  279.600
6148,  '1',  216.600,  -15.909,  367.500,  -80.140,  1.03000,  0,  866.400,  0.00000,  0.23830,  0.00000,  0.00000,  1.00000,  1,  100.0,  722.000,  216.600
6149,  '1',  216.600,  -29.407,  367.500,  -80.140,  1.03000,  0,  866.400,  0.00000,  0.12770,  0.00000,  0.00000,  1.00000,  1,  100.0,  722.000,  216.600
6164,  '1',  136.330,  -5.453,  119.640,  -26.090,  1.03000,  0,  282.060,  0.00000,  0.30070,  0.00000,  0.00000,  1.00000,  1,  100.0,  235.050,  70.520
6165,  '1',  136.330,  -5.468,  119.640,  -26.090,  1.03000,  0,  282.060,  0.00000,  0.18390,  0.00000,  0.00000,  1.00000,  1,  100.0,  235.050,  70.520
6166,  '1',  136.330,  -12.085,  119.640,  -26.090,  1.03000,  0,  282.060,  0.00000,  0.25100,  0.00000,  0.00000,  1.00000,  1,  100.0,  235.050,  70.520
6167,  '1',  136.330,  -6.419,  119.640,  -26.090,  1.03000,  0,  282.060,  0.00000,  0.13970,  0.00000,  0.00000,  1.00000,  1,  100.0,  235.050,  70.520
6213,  '1',  38.714,  -2.940,  68.286,  -2.940,  1.04000,  0,  72.000,  0.00000,  0.33650,  0.00000,  0.00000,  1.00000,  1,  100.0,  177.900,  0.000
6214,  '1',  120.190,  -9.130,  212.059,  -9.130,  1.04000,  0,  223.600,  0.00000,  0.21900,  0.00000,  0.00000,  1.00000,  1,  100.0,  552.300,  0.000
6215,  '1',  120.190,  -9.130,  212.059,  -9.130,  1.04000,  0,  223.600,  0.00000,  0.20110,  0.00000,  0.00000,  1.00000,  1,  100.0,  552.300,  0.000
6216,  '1',  120.190,  -9.130,  212.059,  -9.130,  1.04000,  0,  223.600,  0.00000,  0.37760,  0.00000,  0.00000,  1.00000,  1,  100.0,  552.300,  0.000
6243,  '1',  131.760,  24.310,  93.150,  -20.310,  1.04000,  0,  219.600,  0.00000,  0.28800,  0.00000,  0.00000,  1.00000,  1,  100.0,  183.000,  54.900
6244,  '1',  214.560,  29.160,  151.680,  -33.080,  1.04000,  0,  357.600,  0.00000,  0.12500,  0.00000,  0.00000,  1.00000,  1,  100.0,  298.000,  89.400
6245,  '1',  214.560,  33.798,  151.680,  -33.080,  1.04000,  0,  357.600,  0.00000,  0.24960,  0.00000,  0.00000,  1.00000,  1,  100.0,  298.000,  89.400
6246,  '1',  214.560,  64.537,  151.680,  -33.080,  1.04000,  0,  357.600,  0.00000,  0.16990,  0.00000,  0.00000,  1.00000,  1,  100.0,  298.000,  89.400
6247,  '1',  132.000,  52.974,  93.320,  -20.350,  1.04000,  0,  220.000,  0.00000,  0.11730,  0.00000,  0.00000,  1.00000,  1,  100.0,  183.330,  55.000
6248,  '1',  132.000,  27.022,  93.320,  -20.350,  1.04000,  0,  220.000,  0.00000,  0.27550,  0.00000,  0.00000,  1.00000,  1,  100.0,  183.330,  55.000
6249,  '1',  132.000,  18.276,  93.320,  -20.350,  1.04000,  0,  220.000,  0.00000,  0.17480,  0.00000,  0.00000,  1.00000,  1,  100.0,  183.330,  55.000
6257,  '1',  112.520,  -21.530,  98.750,  -21.530,  1.02000,  0,  232.800,  0.00000,  0.15520,  0.00000,  0.00000,  1.00000,  1,  100.0,  194.000,  58.200
6258,  '1',  112.520,  -21.530,  98.750,  -21.530,  1.02000,  0,  232.800,  0.00000,  0.26310,  0.00000,  0.00000,  1.00000,  1,  100.0,  194.000,  58.200
6260,  '1',  149.060,  -28.530,  130.810,  -28.530,  1.02000,  0,  308.400,  0.00000,  0.11970,  0.00000,  0.00000,  1.00000,  1,  100.0,  257.000,  77.100
6295,  '1',  119.610,  -22.890,  104.970,  -22.890,  1.02000,  0,  247.480,  0.00000,  0.21970,  0.00000,  0.00000,  1.00000,  1,  100.0,  206.230,  61.870
6296,  '1',  119.610,  -22.890,  104.970,  -22.890,  1.02000,  0,  247.480,  0.00000,  0.25670,  0.00000,  0.00000,  1.00000,  1,  100.0,  206.230,  61.870
6297,  '1',  119.630,  -22.890,  104.970,  -22.890,  1.02000,  0,  247.480,  0.00000,  0.14170,  0.00000,  0.00000,  1.00000,  1,  100.0,  206.230,  61.900
6302,  '1',  143.410,  -27.440,  125.850,  -27.440,  1.00000,  0,  296.700,  0.00000,  0.25960,  0.00000,  0.00000,  1.00000,  1,  100.0,  247.250,  74.180
6303,  '1',  143.410,  -27.440,  125.850,  -27.440,  1.00000,  0,  296.700,  0.00000,  0.27270,  0.00000,  0.00000,  1.00000,  1,  100.0,  247.250,  74.180
6304,  '1',  143.410,  -27.440,  125.850,  -27.440,  1.00000,  0,  296.700,  0.00000,  0.11710,  0.00000,  0.00000,  1.00000,  1,  100.0,  247.250,  74.180
6305,  '1',  143.410,  -27.440,  125.850,  -27.440,  1.00000,  0,  296.700,  0.00000,  0.12770,  0.00000,  0.00000,  1.00000,  1,  100.0,  247.250,  74.180
6349,  '1',  522.720,  130.157,  369.540,  -80.580,  1.04000,  0,  871.200,  0.00000,  0.16290,  0.00000,  0.00000,  1.00000,  1,  100.0,  726.000,  217.800
7005,  '1',  117.360,  20.510,  82.970,  -18.090,  1.04000,  0,  195.600,  0.00000,  0.13000,  0.00000,  0.00000,  1.00000,  1,  100.0,  163.000,  48.900
7006,  '1',  117.360,  36.598,  82.970,  -18.090,  1.04000,  0,  195.600,  0.00000,  0.19150,  0.00000,  0.00000,  1.00000,  1,  100.0,  163.000,  48.900
7007,  '1',  117.360,  23.840,  82.970,  -18.090,  1.04000,  0,  195.600,  0.00000,  0.34300,  0.00000,  0.00000,  1.00000,  1,  100.0,  163.000,  48.900
7008,  '1',  117.360,  22.231,  82.970,  -18.090,  1.04000,  0,  195.600,  0.00000,  0.21570,  0.00000,  0.00000,  1.00000,  1,  100.0,  163.000,  48.900
7009,  '1',  117.360,  20.092,  82.970,  -18.090,  1.04000,  0,  195.600,  0.00000,  0.13060,  0.00000,  0.00000,  1.00000,  1,  100.0,  163.000,  48.900
7015,  '1',  0.000,  0.000,  2.040,  -0.440,  1.04000,  0,  4.800,  0.00000,  0.22520,  0.00000,  0.00000,  1.00000,  0,  100.0,  4.000,  1.200
7045,  '1',  109.300,  44.483,  95.920,  -20.920,  1.03000,  0,  226.140,  0.00000,  0.12400,  0.00000,  0.00000,  1.00000,  1,  100.0,  188.450,  56.530
7046,  '1',  109.300,  95.920,  95.920,  -20.920,  1.03000,  0,  226.140,  0.00000,  0.10650,  0.00000,  0.00000,  1.00000,  1,  100.0,  188.450,  56.530
7079,  '1',  164.630,  15.489,  116.380,  -25.380,  1.04000,  0,  274.380,  0.00000,  0.13630,  0.00000,  0.00000,  1.00000,  1,  100.0,  228.650,  68.590
7080,  '1',  164.630,  12.140,  116.380,  -25.380,  1.04000,  0,  274.380,  0.00000,  0.17160,  0.00000,  0.00000,  1.00000,  1,  100.0,  228.650,  68.590
7081,  '1',  164.630,  12.615,  116.380,  -25.380,  1.04000,  0,  274.380,  0.00000,  0.24350,  0.00000,  0.00000,  1.00000,  1,  100.0,  228.650,  68.590
7082,  '1',  164.630,  14.818,  116.380,  -25.380,  1.04000,  0,  274.380,  0.00000,  0.26430,  0.00000,  0.00000,  1.00000,  1,  100.0,  228.650,  68.590
7098,  '1',  2238.467,  926.326,  498.380,  -111.050,  1.00000,  0,  3600.00,  0.00000,  0.28190,  0.00000,  0.00000,  1.00000,  1,  100.0,  1354.30,  406.290
7099,  '1',  1354.300,  270.493,  498.380,  -111.050,  1.00000,  0,  1625.16,  0.00000,  0.27430,  0.00000,  0.00000,  1.00000,  1,  100.0,  1354.30,  406.290
7107,  '1',  87.000,  45.461,  76.350,  -16.650,  1.04000,  0,  180.000,  0.00000,  0.29250,  0.00000,  0.00000,  1.00000,  1,  100.0,  150.000,  45.000
7108,  '1',  0.000,  18.528,  25.960,  -5.660,  1.04000,  0,  61.200,  0.00000,  0.13470,  0.00000,  0.00000,  1.00000,  0,  100.0,  51.000,  15.300
7109,  '1',  0.000,  22.506,  25.960,  -5.660,  1.04000,  0,  61.200,  0.00000,  0.17780,  0.00000,  0.00000,  1.00000,  0,  100.0,  51.000,  15.300
7110,  '1',  141.120,  25.232,  99.760,  -21.760,  1.04000,  0,  235.200,  0.00000,  0.13730,  0.00000,  0.00000,  1.00000,  1,  100.0,  196.000,  58.800
7111,  '1',  141.120,  24.561,  99.760,  -21.760,  1.04000,  0,  235.200,  0.00000,  0.19180,  0.00000,  0.00000,  1.00000,  1,  100.0,  196.000,  58.800
7112,  '1',  141.120,  39.194,  99.760,  -21.760,  1.04000,  0,  235.200,  0.00000,  0.17280,  0.00000,  0.00000,  1.00000,  1,  100.0,  196.000,  58.800
7113,  '1',  141.120,  20.888,  99.760,  -21.760,  1.04000,  0,  235.200,  0.00000,  0.16060,  0.00000,  0.00000,  1.00000,  1,  100.0,  196.000,  58.800
7114,  '1',  141.120,  41.538,  99.760,  -21.760,  1.04000,  0,  235.200,  0.00000,  0.20370,  0.00000,  0.00000,  1.00000,  1,  100.0,  196.000,  58.800
7115,  '1',  141.120,  41.796,  99.760,  -21.760,  1.04000,  0,  235.200,  0.00000,  0.17540,  0.00000,  0.00000,  1.00000,  1,  100.0,  196.000,  58.800
7121,  '1',  0.000,  0.000,  1.880,  -0.410,  1.04000,  0,  4.440,  0.00000,  0.10630,  0.00000,  0.00000,  1.00000,  0,  100.0,  3.700,  1.110
7122,  '1',  0.000,  0.000,  2.190,  -0.480,  1.04000,  0,  5.160,  0.00000,  0.14330,  0.00000,  0.00000,  1.00000,  0,  100.0,  4.300,  1.290
7133,  '1',  0.000,  -1.810,  8.300,  -1.810,  1.00000,  0,  19.560,  0.00000,  0.13400,  0.00000,  0.00000,  1.00000,  0,  100.0,  16.300,  4.890
7134,  '1',  148.720,  -22.930,  105.130,  -22.930,  1.00000,  0,  247.860,  0.00000,  0.12450,  0.00000,  0.00000,  1.00000,  1,  100.0,  206.550,  61.970
7135,  '1',  148.720,  -22.930,  105.130,  -22.930,  1.00000,  0,  247.860,  0.00000,  0.10080,  0.00000,  0.00000,  1.00000,  1,  100.0,  206.550,  61.970
7136,  '1',  148.720,  -22.930,  105.130,  -22.930,  1.00000,  0,  247.860,  0.00000,  0.12110,  0.00000,  0.00000,  1.00000,  1,  100.0,  206.550,  61.970
7137,  '1',  148.720,  -22.930,  105.130,  -22.930,  1.00000,  0,  247.860,  0.00000,  0.35250,  0.00000,  0.00000,  1.00000,  1,  100.0,  206.550,  61.970
7138,  '1',  327.400,  -42.260,  193.780,  -42.260,  1.00000,  0,  456.840,  0.00000,  0.12060,  0.00000,  0.00000,  1.00000,  1,  100.0,  380.700,  114.210
7139,  '1',  0.000,  -6.550,  30.030,  -6.550,  1.00000,  0,  70.800,  0.00000,  0.12350,  0.00000,  0.00000,  1.00000,  0,  100.0,  59.000,  17.700
7140,  '1',  0.000,  -6.550,  30.030,  -6.550,  1.00000,  0,  70.800,  0.00000,  0.29730,  0.00000,  0.00000,  1.00000,  0,  100.0,  59.000,  17.700
7141,  '1',  0.000,  -6.550,  30.030,  -6.550,  1.00000,  0,  70.800,  0.00000,  0.23590,  0.00000,  0.00000,  1.00000,  0,  100.0,  59.000,  17.700
7142,  '1',  0.000,  -6.550,  30.030,  -6.550,  1.00000,  0,  70.800,  0.00000,  0.23560,  0.00000,  0.00000,  1.00000,  0,  100.0,  59.000,  17.700
7146,  '1',  0.000,  -1.130,  5.190,  -1.130,  1.01000,  0,  12.240,  0.00000,  0.16660,  0.00000,  0.00000,  1.00000,  0,  100.0,  10.200,  3.060
7162,  '1',  64.150,  44.615,  56.300,  -12.280,  1.04000,  0,  132.720,  0.00000,  0.21300,  0.00000,  0.00000,  1.00000,  1,  100.0,  110.600,  33.180
7163,  '1',  64.150,  28.701,  56.300,  -12.280,  1.04000,  0,  132.720,  0.00000,  0.10860,  0.00000,  0.00000,  1.00000,  1,  100.0,  110.600,  33.180
7164,  '1',  64.150,  39.896,  56.300,  -12.280,  1.04000,  0,  132.720,  0.00000,  0.20360,  0.00000,  0.00000,  1.00000,  1,  100.0,  110.600,  33.180
7165,  '1',  64.150,  44.245,  56.300,  -12.280,  1.04000,  0,  132.720,  0.00000,  0.39190,  0.00000,  0.00000,  1.00000,  1,  100.0,  110.600,  33.180
7166,  '1',  64.150,  24.499,  56.300,  -12.280,  1.04000,  0,  132.720,  0.00000,  0.12630,  0.00000,  0.00000,  1.00000,  1,  100.0,  110.600,  33.180
7167,  '1',  64.160,  20.258,  56.300,  -12.280,  1.04000,  0,  132.720,  0.00000,  0.10500,  0.00000,  0.00000,  1.00000,  1,  100.0,  110.600,  33.200
7168,  '1',  0.000,  44.650,  44.650,  -9.740,  1.04000,  0,  105.260,  0.00000,  0.20410,  0.00000,  0.00000,  1.00000,  0,  100.0,  87.720,  26.320
7169,  '1',  0.000,  44.650,  44.650,  -9.740,  1.04000,  0,  105.260,  0.00000,  0.14810,  0.00000,  0.00000,  1.00000,  0,  100.0,  87.720,  26.300
7170,  '1',  301.750,  59.681,  178.590,  -38.950,  1.04000,  0,  421.040,  0.00000,  0.12310,  0.00000,  0.00000,  1.00000,  1,  100.0,  350.870,  105.260
7189,  '1',  0.000,  3.510,  3.510,  -0.770,  1.03000,  0,  8.280,  0.00000,  0.14070,  0.00000,  0.00000,  1.00000,  0,  100.0,  6.900,  2.070
7190,  '1',  0.000,  12.132,  24.430,  -5.330,  1.03000,  0,  57.600,  0.00000,  0.14060,  0.00000,  0.00000,  1.00000,  0,  100.0,  48.000,  14.400
7191,  '1',  0.000,  0.000,  2.550,  -0.550,  1.03000,  0,  6.000,  0.00000,  0.14200,  0.00000,  0.00000,  1.00000,  0,  100.0,  5.000,  1.500
7192,  '1',  0.000,  17.205,  17.810,  -3.880,  1.03000,  0,  42.000,  0.00000,  0.16330,  0.00000,  0.00000,  1.00000,  0,  100.0,  35.000,  10.500
7193,  '1',  0.000,  3.820,  3.820,  -0.830,  1.03000,  0,  9.000,  0.00000,  0.21170,  0.00000,  0.00000,  1.00000,  0,  100.0,  7.500,  2.250
7194,  '1',  166.280,  27.849,  117.550,  -25.640,  1.03000,  0,  277.140,  0.00000,  0.16070,  0.00000,  0.00000,  1.00000,  1,  100.0,  230.950,  69.280
7195,  '1',  166.280,  23.751,  117.550,  -25.640,  1.03000,  0,  277.140,  0.00000,  0.11620,  0.00000,  0.00000,  1.00000,  1,  100.0,  230.950,  69.280
7196,  '1',  166.280,  43.985,  117.550,  -25.640,  1.03000,  0,  277.140,  0.00000,  0.13190,  0.00000,  0.00000,  1.00000,  1,  100.0,  230.950,  69.280
7197,  '1',  166.280,  68.712,  117.550,  -25.640,  1.03000,  0,  277.140,  0.00000,  0.20530,  0.00000,  0.00000,  1.00000,  1,  100.0,  230.950,  69.280
7207,  '1',  0.000,  0.000,  2.040,  -0.440,  1.04000,  0,  4.800,  0.00000,  0.12960,  0.00000,  0.00000,  1.00000,  0,  100.0,  4.000,  1.200
7208,  '1',  229.500,  30.165,  389.390,  -84.920,  1.04000,  0,  918.000,  0.00000,  0.32860,  0.00000,  0.00000,  1.00000,  1,  100.0,  765.000,  229.500
7209,  '1',  229.500,  44.037,  389.390,  -84.920,  1.04000,  0,  918.000,  0.00000,  0.31020,  0.00000,  0.00000,  1.00000,  1,  100.0,  765.000,  229.500
7210,  '1',  128.520,  12.049,  90.860,  -19.810,  1.04000,  0,  214.200,  0.00000,  0.12360,  0.00000,  0.00000,  1.00000,  1,  100.0,  178.500,  53.550
7211,  '1',  128.520,  17.436,  90.860,  -19.810,  1.04000,  0,  214.200,  0.00000,  0.25410,  0.00000,  0.00000,  1.00000,  1,  100.0,  178.500,  53.550
7212,  '1',  128.520,  11.238,  90.860,  -19.810,  1.04000,  0,  214.200,  0.00000,  0.14820,  0.00000,  0.00000,  1.00000,  1,  100.0,  178.500,  53.550
7266,  '1',  261.960,  -33.810,  155.040,  -33.810,  1.01000,  0,  365.520,  0.00000,  0.18340,  0.00000,  0.00000,  1.00000,  1,  100.0,  304.600,  91.380
...
 0 /End of Generator data, Begin Branch data
1048,  1049,  '99',  0.00240,  0.33373,  0.00000,  0.00,  0.00,  0.00,  0.00000,  0.000,  0.00000,  0.00000,  0.00000,  0.00000,  1
1048,  1053,  '99',  0.00246,  0.24948,  0.00000,  0.00,  0.00,  0.00,  0.00000,  0.000,  0.00000,  0.00000,  0.00000,  0.00000,  1
1048,  1072,  '99',  0.80900,  4.28568,  0.00000,  0.00,  0.00,  0.00,  0.00000,  0.000,  0.00000,  0.00000,  0.00000,  0.00000,  1
1048,  1076,  '99',  0.38403,  2.48479,  0.00000,  0.00,  0.00,  0.00,  0.00000,  0.000,  0.00000,  0.00000,  0.00000,  0.00000,  1
1048,  1081,  '99',  0.17736,  1.06223,  0.00000,  0.00,  0.00,  0.00,  0.00000,  0.000,  0.00000,  0.00000,  0.00000,  0.00000,  1
1049,  1053,  '99',  -0.00786,  0.44652,  0.00000,  0.00,  0.00,  0.00,  0.00000,  0.000,  0.00000,  0.00000,  0.00000,  0.00000,  1
1049,  1076,  '99',  0.56495,  4.46496,  0.00000,  0.00,  0.00,  0.00,  0.00000,  0.000,  0.00000,  0.00000,  0.00000,  0.00000,  1
1049,  1081,  '99',  0.26510,  1.90939,  0.00000,  0.00,  0.00,  0.00,  0.00000,  0.000,  0.00000,  0.00000,  0.00000,  0.00000,  1
1053,  1076,  '99',  0.43131,  3.33671,  0.00000,  0.00,  0.00,  0.00,  0.00000,  0.000,  0.00000,  0.00000,  0.00000,  0.00000,  1
1053,  1081,  '99',  0.00296,  0.02938,  0.00000,  0.00,  0.00,  0.00,  0.00000,  0.000,  0.00000,  0.00000,  0.00000,  0.00000,  1
1063,  1072,  '99',  0.50676,  3.96047,  0.00000,  0.00,  0.00,  0.00,  0.00000,  0.000,  0.00000,  0.00000,  0.00000,  0.00000,  1
1063,  1075,  '99',  0.47739,  4.62373,  0.00000,  0.00,  0.00,  0.00,  0.00000,  0.000,  0.00000,  0.00000,  0.00000,  0.00000,  1
1063,  1076,  '99',  0.21612,  2.29163,  0.00000,  0.00,  0.00,  0.00,  0.00000,  0.000,  0.00000,  0.00000,  0.00000,  0.00000,  1
1063,  1081,  '99',  0.06834,  0.90767,  0.00000,  0.00,  0.00,  0.00,  0.00000,  0.000,  0.00000,  0.00000,  0.00000,  0.00000,  1
1063,  3045,  '99',  0.11158,  2.05616,  0.00000,  0.00,  0.00,  0.00,  0.00000,  0.000,  0.00000,  0.00000,  0.00000,  0.00000,  1
1063,  5263,  '99',  0.48558,  4.53486,  0.00000,  0.00,  0.00,  0.00,  0.00000,  0.000,  0.00000,  0.00000,  0.00000,  0.00000,  1
1072,  1073,  '99',  0.12908,  1.20504,  0.00000,  0.00,  0.00,  0.00,  0.00000,  0.000,  0.00000,  0.00000,  0.00000,  0.00000,  1
1072,  1074,  '99',  0.06147,  1.15477,  0.00000,  0.00,  0.00,  0.00,  0.00000,  0.000,  0.00000,  0.00000,  0.00000,  0.00000,  1
1072,  1075,  '99',  0.04111,  0.92430,  0.00000,  0.00,  0.00,  0.00,  0.00000,  0.000,  0.00000,  0.00000,  0.00000,  0.00000,  1
1072,  1076,  '99',  0.01630,  0.45787,  0.00000,  0.00,  0.00,  0.00,  0.00000,  0.000,  0.00000,  0.00000,  0.00000,  0.00000,  1
1072,  1077,  '99',  0.06733,  1.11707,  0.00000,  0.00,  0.00,  0.00,  0.00000,  0.000,  0.00000,  0.00000,  0.00000,  0.00000,  1
1072,  1081,  '99',  0.02396,  0.55191,  0.00000,  0.00,  0.00,  0.00,  0.00000,  0.000,  0.00000,  0.00000,  0.00000,  0.00000,  1
1072,  5263,  '99',  0.08718,  4.21556,  0.00000,  0.00,  0.00,  0.00,  0.00000,  0.000,  0.00000,  0.00000,  0.00000,  0.00000,  1
1073,  1074,  '99',  0.16037,  1.75617,  0.00000,  0.00,  0.00,  0.00,  0.00000,  0.000,  0.00000,  0.00000,  0.00000,  0.00000,  1
1073,  1075,  '99',  0.11603,  1.40614,  0.00000,  0.00,  0.00,  0.00,  0.00000,  0.000,  0.00000,  0.00000,  0.00000,  0.00000,  1
1073,  1076,  '99',  0.05129,  0.69679,  0.00000,  0.00,  0.00,  0.00,  0.00000,  0.000,  0.00000,  0.00000,  0.00000,  0.00000,  1
1073,  1077,  '99',  0.16711,  1.69837,  0.00000,  0.00,  0.00,  0.00,  0.00000,  0.000,  0.00000,  0.00000,  0.00000,  0.00000,  1
1073,  1081,  '99',  0.06839,  0.83965,  0.00000,  0.00,  0.00,  0.00,  0.00000,  0.000,  0.00000,  0.00000,  0.00000,  0.00000,  1
1074,  1075,  '99',  0.03877,  1.34572,  0.00000,  0.00,  0.00,  0.00,  0.00000,  0.000,  0.00000,  0.00000,  0.00000,  0.00000,  1
1074,  1076,  '99',  0.01330,  0.66653,  0.00000,  0.00,  0.00,  0.00,  0.00000,  0.000,  0.00000,  0.00000,  0.00000,  0.00000,  1
1074,  1077,  '99',  0.07253,  1.62677,  0.00000,  0.00,  0.00,  0.00,  0.00000,  0.000,  0.00000,  0.00000,  0.00000,  0.00000,  1
1074,  1081,  '99',  0.02229,  0.80352,  0.00000,  0.00,  0.00,  0.00,  0.00000,  0.000,  0.00000,  0.00000,  0.00000,  0.00000,  1
1075,  1076,  '99',  0.00598,  0.53335,  0.00000,  0.00,  0.00,  0.00,  0.00000,  0.000,  0.00000,  0.00000,  0.00000,  0.00000,  1
1075,  1077,  '99',  0.04665,  1.30200,  0.00000,  0.00,  0.00,  0.00,  0.00000,  0.000,  0.00000,  0.00000,  0.00000,  0.00000,  1
1075,  1081,  '99',  0.01222,  0.64301,  0.00000,  0.00,  0.00,  0.00,  0.00000,  0.000,  0.00000,  0.00000,  0.00000,  0.00000,  1
1075,  5263,  '99',  -0.01817,  4.90871,  0.00000,  0.00,  0.00,  0.00,  0.00000,  0.000,  0.00000,  0.00000,  0.00000,  0.00000,  1
1076,  1077,  '99',  0.01739,  0.64492,  0.00000,  0.00,  0.00,  0.00,  0.00000,  0.000,  0.00000,  0.00000,  0.00000,  0.00000,  1
1076,  1081,  '99',  0.00323,  0.31845,  0.00000,  0.00,  0.00,  0.00,  0.00000,  0.000,  0.00000,  0.00000,  0.00000,  0.00000,  1
1076,  3045,  '99',  0.01946,  3.69254,  0.00000,  0.00,  0.00,  0.00,  0.00000,  0.000,  0.00000,  0.00000,  0.00000,  0.00000,  1
1076,  5262,  '99',  -0.03419,  3.40625,  0.00000,  0.00,  0.00,  0.00,  0.00000,  0.000,  0.00000,  0.00000,  0.00000,  0.00000,  1
1076,  5263,  '99',  -0.03052,  2.43057,  0.00000,  0.00,  0.00,  0.00,  0.00000,  0.000,  0.00000,  0.00000,  0.00000,  0.00000,  1
1077,  1081,  '99',  0.02703,  0.77742,  0.00000,  0.00,  0.00,  0.00,  0.00000,  0.000,  0.00000,  0.00000,  0.00000,  0.00000,  1
1081,  2057,  '99',  0.00795,  1.47386,  0.00000,  0.00,  0.00,  0.00,  0.00000,  0.000,  0.00000,  0.00000,  0.00000,  0.00000,  1
1081,  2100,  '99',  0.33786,  3.44998,  0.00000,  0.00,  0.00,  0.00,  0.00000,  0.000,  0.00000,  0.00000,  0.00000,  0.00000,  1
1081,  2127,  '99',  1.04658,  2.57578,  0.00000,  0.00,  0.00,  0.00,  0.00000,  0.000,  0.00000,  0.00000,  0.00000,  0.00000,  1
1081,  3045,  '99',  0.01711,  0.44829,  0.00000,  0.00,  0.00,  0.00,  0.00000,  0.000,  0.00000,  0.00000,  0.00000,  0.00000,  1
1081,  4026,  '99',  0.16487,  3.88808,  0.00000,  0.00,  0.00,  0.00,  0.00000,  0.000,  0.00000,  0.00000,  0.00000,  0.00000,  1
1081,  4115,  '99',  0.10221,  2.72072,  0.00000,  0.00,  0.00,  0.00,  0.00000,  0.000,  0.00000,  0.00000,  0.00000,  0.00000,  1
1081,  4116,  '99',  0.13559,  2.86164,  0.00000,  0.00,  0.00,  0.00,  0.00000,  0.000,  0.00000,  0.00000,  0.00000,  0.00000,  1
1081,  5057,  '99',  0.10862,  1.96844,  0.00000,  0.00,  0.00,  0.00,  0.00000,  0.000,  0.00000,  0.00000,  0.00000,  0.00000,  1
1081,  5058,  '99',  0.15447,  2.86656,  0.00000,  0.00,  0.00,  0.00,  0.00000,  0.000,  0.00000,  0.00000,  0.00000,  0.00000,  1
1081,  5207,  '99',  0.35475,  4.21269,  0.00000,  0.00,  0.00,  0.00,  0.00000,  0.000,  0.00000,  0.00000,  0.00000,  0.00000,  1
1081,  5262,  '99',  0.07717,  1.33900,  0.00000,  0.00,  0.00,  0.00,  0.00000,  0.000,  0.00000,  0.00000,  0.00000,  0.00000,  1
1081,  5263,  '99',  0.05266,  0.95562,  0.00000,  0.00,  0.00,  0.00,  0.00000,  0.000,  0.00000,  0.00000,  0.00000,  0.00000,  1
1081,  5415,  '99',  0.12887,  3.35876,  0.00000,  0.00,  0.00,  0.00,  0.00000,  0.000,  0.00000,  0.00000,  0.00000,  0.00000,  1
1081,  5416,  '99',  0.12032,  3.39696,  0.00000,  0.00,  0.00,  0.00,  0.00000,  0.000,  0.00000,  0.00000,  0.00000,  0.00000,  1
1081,  5417,  '99',  0.09976,  2.99437,  0.00000,  0.00,  0.00,  0.00,  0.00000,  0.000,  0.00000,  0.00000,  0.00000,  0.00000,  1
1081,  5444,  '99',  0.31014,  2.28255,  0.00000,  0.00,  0.00,  0.00,  0.00000,  0.000,  0.00000,  0.00000,  0.00000,  0.00000,  1
1081,  6215,  '99',  0.26962,  3.69418,  0.00000,  0.00,  0.00,  0.00,  0.00000,  0.000,  0.00000,  0.00000,  0.00000,  0.00000,  1
1081,  6349,  '99',  0.45426,  2.80840,  0.00000,  0.00,  0.00,  0.00,  0.00000,  0.000,  0.00000,  0.00000,  0.00000,  0.00000,  1
2004,  2005,  '99',  -0.00112,  0.07952,  0.00000,  0.00,  0.00,  0.00,  0.00000,  0.000,  0.00000,  0.00000,  0.00000,  0.00000,  1
2004,  2006,  '99',  -0.00248,  0.12426,  0.00000,  0.00,  0.00,  0.00,  0.00000,  0.000,  0.00000,  0.00000,  0.00000,  0.00000,  1
2004,  2024,  '99',  0.00631,  0.44678,  0.00000,  0.00,  0.00,  0.00,  0.00000,  0.000,  0.00000,  0.00000,  0.00000,  0.00000,  1
2004,  2115,  '99',  0.03158,  0.96113,  0.00000,  0.00,  0.00,  0.00,  0.00000,  0.000,  0.00000,  0.00000,  0.00000,  0.00000,  1
2004,  2116,  '99',  0.01317,  0.50099,  0.00000,  0.00,  0.00,  0.00,  0.00000,  0.000,  0.00000,  0.00000,  0.00000,  0.00000,  1
2004,  2117,  '99',  0.02502,  1.11309,  0.00000,  0.00,  0.00,  0.00,  0.00000,  0.000,  0.00000,  0.00000,  0.00000,  0.00000,  1
2004,  2118,  '99',  0.03180,  1.23260,  0.00000,  0.00,  0.00,  0.00,  0.00000,  0.000,  0.00000,  0.00000,  0.00000,  0.00000,  1
2004,  2119,  '99',  0.01632,  0.60979,  0.00000,  0.00,  0.00,  0.00,  0.00000,  0.000,  0.00000,  0.00000,  0.00000,  0.00000,  1
2004,  2120,  '99',  0.03269,  1.18455,  0.00000,  0.00,  0.00,  0.00,  0.00000,  0.000,  0.00000,  0.00000,  0.00000,  0.00000,  1
2004,  5037,  '99',  0.07973,  1.91361,  0.00000,  0.00,  0.00,  0.00,  0.00000,  0.000,  0.00000,  0.00000,  0.00000,  0.00000,  1
2004,  5038,  '99',  0.07838,  1.97509,  0.00000,  0.00,  0.00,  0.00,  0.00000,  0.000,  0.00000,  0.00000,  0.00000,  0.00000,  1
2004,  5039,  '99',  0.03807,  0.86862,  0.00000,  0.00,  0.00,  0.00,  0.00000,  0.000,  0.00000,  0.00000,  0.00000,  0.00000,  1
2004,  5040,  '99',  0.12463,  2.58508,  0.00000,  0.00,  0.00,  0.00,  0.00000,  0.000,  0.00000,  0.00000,  0.00000,  0.00000,  1
2004,  5041,  '99',  0.08576,  1.79683,  0.00000,  0.00,  0.00,  0.00,  0.00000,  0.000,  0.00000,  0.00000,  0.00000,  0.00000,  1
2004,  5042,  '99',  0.08254,  2.11678,  0.00000,  0.00,  0.00,  0.00,  0.00000,  0.000,  0.00000,  0.00000,  0.00000,  0.00000,  1
...